2CD52F24      69       4    3039B66B065C
      1C      3D6467B2BC3FE78B7F
3DF82E143FD5ED6FBCEB01903FA7DC76FB493C683FB3FBA79EAA5A183FC3AC0C
59A1B8013FE2E40772E77B223FDF3E6BF1ECFB203FAF6944945BAE783FCD78BC
5223E4083FC8DF66D613A0B63FE34EEE903DE6823FDB341DD63633D83FE3CB5B
40EFFCB43FE9753B6B6988AE3FE8DE1E2CA2EF713FEFA032620CD4A03FC05137
6425450A3FE865757C4DEC563FEF1F27C60AB0903FD0E95D3B5BD4A03FC9C8DA
B105A4E83FD6F35E2641945B3FE0F32A84D6F0443FD626DBFCB4D9883FD21BC6
2D52F5043FD729A8B4D1193C3FD983A63A4072003F724C7C3D01A7C83FCD2D4A
D374AC143FEE10C448ECC7E03FE04DBECFEB54333FE89530A84B7A723FD0A594
B83DBB783FEAFCD2259DBF123FE2E8EB43DBA5203FB8DC02B7625A643FC7DF83
A8ECB9703FE23BCF7F7A15AC3FE7D17A84C8494A3FEA03BA75A7A9463FEA0E49
D49D573A3FD915688F55A3683FD0EFCB98F0D56D3FE74EFA2B382D5E3FEB1636
5F48F8BA3FDF377BC04986683FEBE0F8E9B644543FC35BE1C41E03573FE02F9F
6F736B943FD5F919 FBB13E63FDED6A05F29E8073FE8C8957B153F7E3FD497E1
B489BE1E3FD7E967121085BA3FD8DB1CCAED569C3FC63F79 874108A3FDB2162
59A27A733FE13AA1F9FDD9803F94AB7E188E7B703FC82DFDA7C78E803FB537AC
988D996E3FDEE2A1 23F9F983FEC766F88F35F483FD4B592 889A4A03FB66DFB
B5CF33503FA1C71750A46D903FE48F66DB6E22303FE22EF712D8550D3FEADF8E
4EE2DAFB3FEA54C8 4BFEB2E3FD3F988D5D9F65A3FDE77F27A0A610F3FEB4C19
251281AE3FD0FEC93677321A3FD3C698C676AC043FD01727D03798803FA4B986
6036D6503FDF320E3B2F02EE3FE106EE8E3A76C83FBBBDE1F57585703FDD55CE
CD73D7313FE66EB0640337803F89F5786AAC8AE93FE4E24F887F31403F91F8EF
C207A9D93FE25E8E1D6A1E803FA687C09199F89B3FEA55A4FBF26E9E3FECD75C
6BC0244E3FD6116BE88593483FD2BC7DF43F97243FD6D012FB4718903FB56A35
99628D073FE6D5C8EA0C7E183FB3176AF52E24903FECA7AC33727D403FAA9053
F6B2D9BC3FCB7B5E
