21C51AFA      25      1D    3039B66B0643
      1C      3D61BA47783FCE8502
160276383FDF2E41EDC70E803FEC6AF0D47E59A83FE1D44BC543F4F33FEF0DEA
770420B03FEBD66A9BEB16D53FEDB3675281FC233FE430B1D79C6D983FE1F7C6
CD46865A3FDCA8D2237B7E193FE314B88CFAAE6D3FE24476 89594503FDA10BA
5F065F383FB7C8E41A409E1D3FE10EA08F8B78783FB9DC22AB550B403F9755C4
CA0A07213FE886629DEBE2A03FCE4E7BFDA9A8303FC0AE2A4718B7883FDEBC4B
68183D793FE5F2755C2AA4DE3FDE96E12983EDDE3FDA835DACDB0C753FEDE423
A0C6EDE03FD8C71AF5DB55903FD8D5BE9D0F71F43FC28AB09D2222253FE8E324
D006BE143FD7B4CE60896A4C3FDDAB06360FC9683FDB0A2E25A195123FE27788
BAF3ABE03F95D2DEC579EC0A3FE1AF103FC5DF373FE4C3681360FB6B3FE3B1F3
A4752B773FEC757D19C3D4703FAEB59F6F6068143FCAEE2D543D0E643FE6C359
7ECE98DD3FE97376A93B837D3FE4B72E389AC7183FD4041250F30F2E3FDD4A08
C193E2903FB8D2DDDCE2ECB63FE366369FF64F213FEFE65C635C9D3C3FDAB7E0
F3AB55403FD80B22FE40FB983FEE3148CAD784813FE55D456327B46A3FD71F21
798F28353FE6AB8DD5DC57EB3FE0154E57CC97C83FDA242FE459025D3FEB2E7F
AC026E903FC34621F6B222E33FE469E38AC250453FEE5D7E15BBA0303FAF36F5
 AC29DD63FD933E4E32C67FC3FCCD50ABEA509383FBA805D583720863FDFFC87
5200BB623FE15C8315B8A10A3FDFD5675A4B0E6B3FE27A19374C9AD63FD5A47F
4954B8FB3FED75AB9F6BA8103FDC4C8F32FB8A423FE40BB1146C3A9C3FEBCF75
786072493FEE5B689BE838CC3FC27E25F79953383FD20351B4F016203FBF1870
74A4BC603FEA1F2521AB49753FE83C932C8EE87A3FEC67A9974101063FD15932
A83639683FBF2EBC A5F98873FE200314F1CDBA63FD6188DDD5C81503FCFE59B
961BF9A03FE472E485D9C6113FEB0C22A9482B1E3FEFBFE61BCC4CCB3FE21920
7CAB1ADE3FEFABFAFA0D19C23FE7486636E6FEA63FD91A17F72AE3483FE6DBCC
AA540EF13FEBB4964E8A05143FC882D1B680B3423FE0CBBD CE37CD63FE8A62E
C75C03E53FE2BD41
