1F2EF4AC      29      1E    3039B66B0642
      1C      3D68CA153C3FDB3520
C0CFE1283FB86D675DCDF7D03FBB18CA3EEEC64B3FEA1AA2E0EB83633FE64B50
A653D8B43FE8DF1E9D4468003F3A0C8A653712403F8B132AC4BDD88F3FEEBC6F
6F7D2E073FE5999CF77E45803FD8F08F98C8ACAE3FE4CA50746CA3EB3FEDD66E
70BC36683FE7476423F02B573FEF4B79ADB307203FB78FAE7BF6DEC13FE75D39
C34EF35F3FEA2DF880DC33AB3FE5AC6090D091F03FB669F6B5F28D5C3FC893F5
 6CD04383FE6628E369276C03FC647A642654AA43FDFE3A942BF3F0C3FC09445
FFF833F03FEDC8C8AC3EF6EF3FE6A30D66ACEB843FECD5B22E410F583FC0311A
CA80ED403F82D7C62C6E060C3FCE6BB5A788AE303FC5A23E891386F53FE803B1
 1A87A163FEF5824AE638DEB3FE9320FD3F83A2B3FEDE58CEF65A3A83FEEA4D0
EC6522B83FEC8DFC9E3DE5F23FD1762839DB6E423FD0C4439192A44A3FE2E6DA
A8CC9C403FD2771E3BE3A9CE3FD6FDAC50A62EE23FE14B1F676566483FDEA9F5
C4E6AD353FEDDE943A414DD63FD2C048CCDDA29C3FCE4949CB9F74653FE9D182
871293883FC30141E08A172A3FDD7CEC5C605BC23FE684673E5948223FEE6334
BCFFE8023FE5CBDCB6C5C22C3FD7DACC2799CA383FE37C655D73B7B43FCFF5D0
12A24DF43FEFE0C6231C73C83FE065BDA76C7D443FEA2AE591907E383FE7E486
C5AFE1123FD86099CCA6AFF23FD26FFDE311A5B83FB3CA8F3D578FC03FEE2719
C00724403F85BA5DA28EA97A3FECD8A2BDD6237C3FEA6C6BC4E45BCA3FED4958
30A752D93FE7A9BEC756F32A3FE80D3BA3F9DB823FD9A6852B8A7FB43FCE2E8C
22EF2DEA3FD17C8D57A5AC553FE459323A7BCE5F3FEB88175FFEF9E23FEA2151
F80CA6CC3FCF454CF0C08EF03FAE19DF7FC0466A3FE0B97F3A0D1B803FBC539A
D25965D03FBA0535ED7578AF3FE04560582258083FBDFE29F0C3E0E83FE9626D
AA683CB63FD69D83E8D600143FD419822AD9E9FE3FDE827F7225B6803FE89162
164269883FE01A97D4A75F213FE2ED539D0812B73FEF4C7C9CD46F243FD10D26
306C1CBF3FE8F44D13F2877A3FD9C28B944CD8EC3FC48A7AF56444BA3FEAE3AA
8EFD749A3FE61B05
