1E120777       0      37    3039B66B0629
      1C      3DA206D1313FE8642F
2363A0433FEA8502A1C9A6113FE8B6A9EDBA651A3FE5430199BBF7623FD99855
 205B4A03F9753F1B62325023FDF431F3DAABBF43FE2D57998760D8C3FCDA105
B80953203FDC4879D1A747C03FD9CEC9BEFB962B3FE0A6DDB31AF71D3FE3BA6C
4390DEA73FE3DF9922C36BCA3FE8F5A760B663FC3FE5105CFEA611343FE13CCC
4ABDED023FED251C EC0499A3FDCBD7B 123EE323FEF5E851165144D3FE0775F
F3C4DEE73FEE56E6442812583FB33557E87F8FBA3FD64895E27FF96D3FE895BE
1B19EBE03FD2E9BBB679487C3FC86D57BEABDF943FC967694F861F913FE58D93
B1306FF83FEE6F42A293BDC23FE2435FADA73C7A3FEA6CD68596B90A3FE08818
FE8DDA083FD209B2621C22923FE703B5FFE7D8803F9A8082E4B0284E3FE6A135
1BBE25C83FD29C70B1B1E6C93FE2DF15 493EDC43FD8943C3D21CD383FEFEB99
 4E57D683FC68678196DCA083FC837572727F0513FEEDE4779D7043E3FD306FB
2EBD817F3FE1E4BBB9A775A63FE010E1F4DEFB703FD1A1CB55A161923FDF5B4B
7402120B3FEC8A84FFD4515D3FEEAD92 D2655623FD71D77B54584A83FDE1DC3
96CE19183FCD4555A3A7C02F3FE9AE694BDA135A3FDA54D0E6DE1E283FC0FE0B
5E0BEDEC3FE1FE5DFCF74FD13FE980033338E30B3FEAC3BFFF50CA7C3FE5FA11
178BB81F3FE2FA5D2B891B243FD5B6268B2290A03FEAAC164EFD2F2E3FE0090D
67EFCBD03FEADD3624EA13733FE25A4658A8A1763FD9229F7B472FDC3FECD85F
537E98DC3FE8BD77BCC455AB3FEF98ED74F4D9293FE27AF3A976695A3FD9A0ED
D7F5BFCE3FD631471C03E2123FE4066B6395D1E43FD8E2C0 A0500373FE93A16
FDE1E1793FEAC32A19CF5CB83FE6CC0883F8DC703FD63093E4CED1A93FE331C1
2A1CF6103FA0CEF1 652C8083FBCDB0AE11719063FE639E5745B9CD43FEB5623
83FBB67E3FE20854CFDAF35E3FE2EC05AFFE9F043FE008A25BDA9E2C3FC87CE6
A6E0F2FF3FE6574E23BBF2183FB61EDF74841D673FE3CDFCF60A64683FCFB732
2002A21D3FEF28902C92A9103FE47F4B99419E473FEBFF2E  82CDB03FA0A2B1
52EC1CD53FE452BA
