2CE44DBE      10      45    3039B66B061B
      1C      3D56ABC7483FCA412B
1D7B93843FE3F035E12DA3EA3FD72FA377AD7BD73FEE1543EC078E543FD06129
7856562D3FEDDD5AAB30EDC23FD281D034276E923FEBC376F5FDA0813FE3B259
 F1214143FE77871716C83E43FC03F5B600B37173FED2F2987EF3F683FE2839C
429174703FE7509B4B30C0403FEB51747ECF9AC83FC3C5C0B37A48B53FE345A7
180DE0FA3FE497B9236324003FD7F72EE5BD54B43FC541D553B522B83FB5305A
653B74C93FE623EE411784483FDDA160D5FF71713FE45F3FA87D317B3FE63651
157A6DD03FEF800A9643A0803F9ABFA082098E293FE758FB5E90C2F63FE7FC86
D4D396CC3FCBB560F6199D743FC6BE761B3BEEB03FAE4D889E3A68FE3FE95FAF
11373B343FD3CEA26C8D21173FE0BF2AD75D1E2F3FE841E4600063CA3FDF4FAA
7A77416A3FE7F8D7B83FBA183FCF44D49180B0B73FE77209ACDC92F43FDA8333
AEDCE63F3FE618825E0E1D6C3FCC24D2  CE8EF83FB6282FC3D7BBA13FE59593
3077F3E23FE169BA2E52AB8B3FE7C913C55A5D063FE18B30C43C27DA3FD82C86
71382C083FE1A9BFCBD8671C3FDFB5F1439F6D953FE128F45A91FF403F88320A
 33DA2CC3FED5AFC122793303FAEA3DC3D1B59AC3FEFA10940FB9FE83FE4B31F
C39C52E93FEAB10299903DAB3FEB3918531218043FCEADB3D5BD46D03FDEE816
9D5E2DEE3FE9FAB346826AF83FDA37D7F723B5603FA5DFF2822E83BA3FEC53CB
31244A183FCDAE8B95AC9C853FE639005DC47D243FEC578EBF7CD9DA3FDC9B0D
7A0028853FE40EA2F8DDEE703FDE24FA13FCCDE03FA343436D40D00A3FE8B5F1
4EF420CC3FE2B3FE F9AF5E03FE027044194340E3FE107C9285612503FEF77D2
583B16803FC3355353EB03BD3FED1645195EA71D3FE9EFE8B6DBE6613FEF173E
E03F11433FE6070F9F33B05A3FDC7DA61E6117223FE65BBFFFEE1EF03FC97ECB
BC99CFD03FA94A00914626D33FE786DCBD8148E03FA5B1433D8A0E403F9866CF
EFBA16AA3FE951897F1C59373FE67B75EA170AF43FC11C136BF9330F3FE2B151
9D052E4D3FE5944B5F1A00D43FC8BE464C0BD6D13FE7B80F95962F3A3FEBA637
1C3311943FECE116
