  1340AF       3      27    3039B66B0639
      1C      3D75E38E633FE89727
12522E8E3FD629455E0E050C3FC0ACB7 96BB9443FE13E0D9E7CB48A3FEBFB18
1D8FA4553FE74C52A70EF1A43FDB119136ACC5123FD48255246B6BA43FCAF40A
D3AA6A543FC96360E6BC59893FEE1210E320B3603F9C77AA  24D0BF3FE03A32
CEFF72E33FE9C484DCB912303FE6891E5CA1AC5C3FE82556E65535E43FE84A02
 EAFB7643FD6987CE1A2F6FC3FCB113CF0F2A8DE3FD2A0AFE01425483FD9C7DC
AD48909C3FD6735ABA3F1FA93FED78C334691A913FEBE52FCD3DDE743FE3ABC4
 AE2FB803F7D594B 384C8893FEE693FC61DBC003FA7C8F614DD34643FDB30C4
E3E11FA03F9498B4DE6178263FD88579943481173FE87A4D69BAF9403FE270D0
40893A843FE96A67C1A3B52C3FCA0E08134F93323FD9432AF41E053E3FDB7EE6
4A5C183C3FD6668C81B05DDD3FEB70614DAD46733FEB3C828F9336A03FEEF01A
F81F4C523FEB6DCAF46E0D9C3FC80A9AB1CA55393FEFC33FAD01E1993FEEDD1B
B5A17E7E3FD53BE481324BD33FE2CFDF987F52FA3FE8B73FDBFD3AA93FEB4419
3E8D92603FA78A11AFA0C9683FC981B7 9FCAA043FC4593331C375283FDCD711
D64B8FB83FB8B2DDCAE566713FE9DE3DFFBA74F23FEF9C6671D0C9E83FDC30C1
70C7CF183FC0A0A3519D5D133FE73B81E2FFD1243FD8BFD6CD9397D83FB17345
A988713C3FDB27822440B5F23FE72CDEE5C247543FED0EC21B913C0C3FE95C5A
624FC0D43FE9CD54AA2C05903FC100745F1776AA3FE125068EA2A7A83FC953F8
4E738E503FBF733679049A193FE0D6B3FD206F4E3FE4DF5F334876EC3FEE1432
9301E98F3FE05B76  30FE283FDB8E399054DF0B3FEF191BDBF1478E3FE3701E
6882BA743FCC851426C5752C3FDF2DB98829797E3FD85F40 834DEEC3FE20CA9
AE4155903FD37579CDF205E53FE67588B6A96F503FA1E4DBEF7D88003FD0ADC4
BBF47F003FBC0BF35D3FE8003FAC8EDF771821583FB5F9A73112BE933FE2133C
  893B643FDAA05D4F1C667B3FE04B0451E7E9183FD78FD73CD04C003FE4323F
81809F513FE470029B94CD933FEEDFDBC176F3343FEB08E3 AB722903FEAA3EC
6B20FA363FD6B6A5
